Version 4.1
SHEET 1 1052 680
WIRE 912 -208 288 -208
WIRE 912 -176 912 -208
WIRE -80 -144 -192 -144
WIRE 16 -144 -80 -144
WIRE 192 -144 16 -144
WIRE 288 -144 288 -208
WIRE 288 -144 192 -144
WIRE 320 -144 288 -144
WIRE 384 -144 320 -144
WIRE 592 -144 384 -144
WIRE 656 -144 592 -144
WIRE 80 -128 64 -128
WIRE -80 -96 -80 -144
WIRE 16 -96 -80 -96
WIRE 384 -96 384 -144
WIRE 384 -96 320 -96
WIRE 656 -96 656 -144
WIRE 656 -96 592 -96
WIRE 80 -64 80 -128
WIRE 272 -64 80 -64
WIRE 544 -64 464 -64
WIRE 80 -48 80 -64
WIRE 80 -48 16 -48
WIRE 912 -48 912 -96
WIRE 320 0 320 -48
WIRE 464 0 464 -64
WIRE 464 0 320 0
WIRE 496 0 464 0
WIRE 592 0 592 -48
WIRE 592 0 560 0
WIRE 784 0 592 0
WIRE -192 16 -192 -144
WIRE 16 16 16 -48
WIRE 320 32 320 0
WIRE 16 64 16 16
WIRE 320 64 320 32
WIRE 448 80 368 80
WIRE 176 112 16 112
WIRE 320 112 176 112
WIRE 784 112 784 0
WIRE 176 128 176 112
WIRE -32 144 -368 144
WIRE 176 160 16 160
WIRE 320 160 176 160
WIRE -192 192 -192 96
WIRE -96 192 -192 192
WIRE 784 224 784 176
WIRE -192 240 -192 192
WIRE 176 240 176 160
WIRE 592 240 592 0
WIRE -96 256 -96 192
WIRE -96 256 -144 256
WIRE -48 256 -96 256
WIRE -192 288 -256 288
WIRE 272 288 176 288
WIRE 688 288 592 288
WIRE -48 320 -48 256
WIRE 32 320 -48 320
WIRE 80 320 32 320
WIRE 128 320 80 320
WIRE 544 320 528 320
WIRE -368 336 -368 224
WIRE -256 336 -256 288
WIRE -256 336 -368 336
WIRE -192 336 -256 336
WIRE 176 336 -192 336
WIRE 208 336 176 336
WIRE 272 336 272 288
WIRE 272 336 208 336
WIRE 448 336 448 160
WIRE 448 336 272 336
WIRE 592 336 448 336
WIRE 688 336 688 288
WIRE 688 336 592 336
WIRE 80 352 80 320
WIRE 528 352 528 320
WIRE 528 352 80 352
WIRE 208 400 208 336
FLAG 208 400 0
FLAG 784 224 0
FLAG 176 128 0
FLAG 176 160 nds
FLAG 16 16 net1
FLAG 320 32 net2
FLAG 592 0 vout
FLAG 32 320 nbias
FLAG 192 -144 vdd
FLAG -32 144 inm
FLAG 368 80 inp
FLAG 912 -48 0
SYMBOL nmos4 -32 64 R0
SYMATTR InstName M1
SYMATTR Value nmos180
SYMATTR Value2 l=0.25u w=4.25u
SYMBOL nmos4 368 160 R180
SYMATTR InstName M2
SYMATTR Value nmos180
SYMATTR Value2 l=0.25u w=4.25u
SYMBOL nmos4 128 240 R0
SYMATTR InstName M5
SYMATTR Value nmos180
SYMATTR Value2 l=0.25u w=2.5u
SYMBOL nmos4 544 240 R0
SYMATTR InstName M7
SYMATTR Value nmos180
SYMATTR Value2 l=0.25u w=5u
SYMBOL nmos4 -144 336 R180
SYMATTR InstName M8
SYMATTR Value nmos180
SYMATTR Value2 l=0.25u w=0.25u
SYMBOL pmos4 64 -48 R180
SYMATTR InstName M3
SYMATTR Value pmos180
SYMATTR Value2 l=0.25u w=5.25u
SYMBOL pmos4 272 -144 R0
SYMATTR InstName M4
SYMATTR Value pmos180
SYMATTR Value2 l=0.25u w=5.25u
SYMBOL pmos4 544 -144 R0
SYMATTR InstName M6
SYMATTR Value pmos180
SYMATTR Value2 l=0.25u w=78.5u
SYMBOL cap 560 -16 R90
WINDOW 0 0 32 VBottom 2
WINDOW 3 32 32 VTop 2
SYMATTR InstName C1
SYMATTR Value 2.5p
SYMBOL cap 768 112 R0
SYMATTR InstName C2
SYMATTR Value 2p
SYMBOL current -192 16 R0
WINDOW 123 0 0 Left 0
WINDOW 39 0 0 Left 0
SYMATTR InstName I1
SYMATTR Value 5”
SYMBOL voltage 912 -192 R0
WINDOW 123 0 0 Left 0
WINDOW 39 0 0 Left 0
SYMATTR InstName V1
SYMATTR Value 1.8V
SYMBOL voltage 448 64 R0
WINDOW 123 24 124 Left 2
WINDOW 39 0 0 Left 0
SYMATTR InstName V2
SYMATTR Value 0.9V
SYMATTR Value2 AC 1 0
SYMBOL voltage -368 128 R0
WINDOW 123 0 0 Left 0
WINDOW 39 0 0 Left 0
SYMATTR InstName V3
SYMATTR Value 0.900441V
TEXT 712 400 Left 2 !.include models_180nm.lib
TEXT 856 336 Left 2 ;.op
TEXT 856 368 Left 2 !.ac dec 100 1 1G
